# ###### Created on Fri Apr 27 09:55:46 2012 ######
# Script version: $Id: simulate-version5.R 1028 2011-12-14 14:26:38Z adhari $

[General]
network             = cmttest4
rng-class           = cMersenneTwister
seed-0-mt           = 1
output-scalar-file  = run1-scalars.sca
output-vector-file  = run1-vectors.vec
sim-time-limit      = 0s 3600s 1ms
simtime-scale       = -8   # 10ns time scale


cmdenv-express-mode = yes     # *** Enable debugging messages here! ***
**.testing          = false   # *** Enable debugging messages here! ***
**.checkQueues      = false   # *** Enable checkOutstandingBytes() calls here! ***

cmttest4.**.vector-recording = no
cmttest4.**.vector-recording-intervals = 0s..0s 3600s

# ====== Special Settings ==============================
cmttest4.core[0].client*[1].sctp.cmtCCVariant = "off"

# ===== General Scenario Settings ======================
cmttest4.cores                  = 3
cmttest4.core[0].downlinkTrails = 2
cmttest4.core[1].uplinkTrails   = 2
cmttest4.core[1].downlinkTrails = 1
cmttest4.core[2].uplinkTrails   = 1
# ---- Alpha ----------------------------------------------
cmttest4.core[0].systemsMain                          = 1
cmttest4.core[0].systemsReference                     = 0
cmttest4.core[0].clientReference[*].sctp.cmtCCVariant = "off"
cmttest4.core[0].serverReference[*].sctp.cmtCCVariant = "off"
cmttest4.core[0].disjointTrails                       = 2
cmttest4.core[0].bottleneckTrails                     = 0
# ---- Beta -----------------------------------------------
cmttest4.core[1].systemsMain                          = 0
cmttest4.core[1].systemsReference                     = 0
cmttest4.core[1].clientReference[*].sctp.cmtCCVariant = "off"
cmttest4.core[1].serverReference[*].sctp.cmtCCVariant = "off"
cmttest4.core[1].disjointTrails                       = 1
cmttest4.core[1].bottleneckTrails                     = 0
# ---- Gamma ----------------------------------------------
cmttest4.core[2].systemsMain                          = 0
cmttest4.core[2].systemsReference                     = 0
cmttest4.core[2].clientReference[*].sctp.cmtCCVariant = "off"
cmttest4.core[2].serverReference[*].sctp.cmtCCVariant = "off"
cmttest4.core[2].disjointTrails                       = 1
cmttest4.core[2].bottleneckTrails                     = 0

# ===== Network QoS Settings ===========================
# ----- Alpha Trail ------------------------------------
cmttest4.core[0].westernCoreRouter[*].ppp[0].ppp.mtu             = 1500   # NOTE: mtu := max(commonMTU, coreMTU)
cmttest4.core[0].westernCoreRouter[*].ppp[0].queueType           = "REDQueue"
cmttest4.core[0].westernCoreRouter[*].ppp[0].queue.wq            = 0.002
cmttest4.core[0].westernCoreRouter[*].ppp[0].queue.minth         = 30
cmttest4.core[0].westernCoreRouter[*].ppp[0].queue.maxth         = 90
cmttest4.core[0].westernCoreRouter[*].ppp[0].queue.maxp          = 0.1
cmttest4.core[0].westernCoreRouter[*].ppp[0].queue.frameCapacity = 100
cmttest4.core[0].westernCoreRouter[*].ppp[0].queue.pkrate        = 1041.667
cmttest4.core[0].westernCoreRouter[*].pppg$o[0].channel.datarate = 10 Mbps
cmttest4.core[0].westernCoreRouter[*].pppg$o[0].channel.delay    = 10 ms
cmttest4.core[0].westernCoreRouter[*].pppg$o[0].channel.per      = 0
cmttest4.core[0].westernCoreRouter[*].pppg$o[0].channel.ber      = 0
cmttest4.core[0].easternCoreRouter[*].ppp[0].ppp.mtu             = 1500   # NOTE: mtu := max(commonMTU, coreMTU)
cmttest4.core[0].easternCoreRouter[*].ppp[0].queueType           = "REDQueue"
cmttest4.core[0].easternCoreRouter[*].ppp[0].queue.wq            = 0.002
cmttest4.core[0].easternCoreRouter[*].ppp[0].queue.minth         = 30
cmttest4.core[0].easternCoreRouter[*].ppp[0].queue.maxth         = 90
cmttest4.core[0].easternCoreRouter[*].ppp[0].queue.maxp          = 0.1
cmttest4.core[0].easternCoreRouter[*].ppp[0].queue.frameCapacity = 100
cmttest4.core[0].easternCoreRouter[*].ppp[0].queue.pkrate        = 1041.667
cmttest4.core[0].easternCoreRouter[*].pppg$o[0].channel.datarate = 10 Mbps
cmttest4.core[0].easternCoreRouter[*].pppg$o[0].channel.delay    = 10 ms
cmttest4.core[0].easternCoreRouter[*].pppg$o[0].channel.per      = 0
cmttest4.core[0].easternCoreRouter[*].pppg$o[0].channel.ber      = 0
cmttest4.core[0].client*[*].ppp[0].ppp.mtu = 1500   # Core
cmttest4.core[0].server*[*].ppp[0].ppp.mtu = 1500   # Core
cmttest4.core[0].client*[*].ppp[1].ppp.mtu = 1500   # Core
cmttest4.core[0].server*[*].ppp[1].ppp.mtu = 1500   # Core

# ----- Beta Trail -------------------------------------
cmttest4.core[1].westernCoreRouter[*].ppp[0].ppp.mtu             = 1500   # NOTE: mtu := max(commonMTU, coreMTU)
cmttest4.core[1].westernCoreRouter[*].ppp[0].queueType           = "REDQueue"
cmttest4.core[1].westernCoreRouter[*].ppp[0].queue.wq            = 0.002
cmttest4.core[1].westernCoreRouter[*].ppp[0].queue.minth         = 30
cmttest4.core[1].westernCoreRouter[*].ppp[0].queue.maxth         = 90
cmttest4.core[1].westernCoreRouter[*].ppp[0].queue.maxp          = 0.1
cmttest4.core[1].westernCoreRouter[*].ppp[0].queue.frameCapacity = 100
cmttest4.core[1].westernCoreRouter[*].ppp[0].queue.pkrate        = 1041.667
cmttest4.core[1].westernCoreRouter[*].pppg$o[0].channel.datarate = 12500000 bps
cmttest4.core[1].westernCoreRouter[*].pppg$o[0].channel.delay    = 10 ms
cmttest4.core[1].westernCoreRouter[*].pppg$o[0].channel.per      = 0
cmttest4.core[1].westernCoreRouter[*].pppg$o[0].channel.ber      = 0
cmttest4.core[1].easternCoreRouter[*].ppp[0].ppp.mtu             = 1500   # NOTE: mtu := max(commonMTU, coreMTU)
cmttest4.core[1].easternCoreRouter[*].ppp[0].queueType           = "REDQueue"
cmttest4.core[1].easternCoreRouter[*].ppp[0].queue.wq            = 0.002
cmttest4.core[1].easternCoreRouter[*].ppp[0].queue.minth         = 30
cmttest4.core[1].easternCoreRouter[*].ppp[0].queue.maxth         = 90
cmttest4.core[1].easternCoreRouter[*].ppp[0].queue.maxp          = 0.1
cmttest4.core[1].easternCoreRouter[*].ppp[0].queue.frameCapacity = 100
cmttest4.core[1].easternCoreRouter[*].ppp[0].queue.pkrate        = 1041.667
cmttest4.core[1].easternCoreRouter[*].pppg$o[0].channel.datarate = 12500000 bps
cmttest4.core[1].easternCoreRouter[*].pppg$o[0].channel.delay    = 10 ms
cmttest4.core[1].easternCoreRouter[*].pppg$o[0].channel.per      = 0
cmttest4.core[1].easternCoreRouter[*].pppg$o[0].channel.ber      = 0
cmttest4.core[1].client*[*].ppp[0].ppp.mtu = 1500   # Core
cmttest4.core[1].server*[*].ppp[0].ppp.mtu = 1500   # Core
cmttest4.core[1].client*[*].ppp[1].ppp.mtu = 1500   # Uplink; NOTE: mtu := max(commonMTU, uplinkMTU)
cmttest4.core[1].server*[*].ppp[1].ppp.mtu = 1500   # Uplink; NOTE: mtu := max(commonMTU, uplinkMTU)
cmttest4.core[1].client*[*].ppp[2].ppp.mtu = 1500   # Uplink; NOTE: mtu := max(commonMTU, uplinkMTU)
cmttest4.core[1].server*[*].ppp[2].ppp.mtu = 1500   # Uplink; NOTE: mtu := max(commonMTU, uplinkMTU)

# ----- Gamma Trail ------------------------------------
cmttest4.core[2].westernCoreRouter[*].ppp[0].ppp.mtu             = 1500   # NOTE: mtu := max(commonMTU, coreMTU)
cmttest4.core[2].westernCoreRouter[*].ppp[0].queueType           = "REDQueue"
cmttest4.core[2].westernCoreRouter[*].ppp[0].queue.wq            = 0.002
cmttest4.core[2].westernCoreRouter[*].ppp[0].queue.minth         = 30
cmttest4.core[2].westernCoreRouter[*].ppp[0].queue.maxth         = 90
cmttest4.core[2].westernCoreRouter[*].ppp[0].queue.maxp          = 0.1
cmttest4.core[2].westernCoreRouter[*].ppp[0].queue.frameCapacity = 100
cmttest4.core[2].westernCoreRouter[*].ppp[0].queue.pkrate        = 1041.667
cmttest4.core[2].westernCoreRouter[*].pppg$o[0].channel.datarate = 12500000 bps
cmttest4.core[2].westernCoreRouter[*].pppg$o[0].channel.delay    = 10 ms
cmttest4.core[2].westernCoreRouter[*].pppg$o[0].channel.per      = 0
cmttest4.core[2].westernCoreRouter[*].pppg$o[0].channel.ber      = 0
cmttest4.core[2].easternCoreRouter[*].ppp[0].ppp.mtu             = 1500   # NOTE: mtu := max(commonMTU, coreMTU)
cmttest4.core[2].easternCoreRouter[*].ppp[0].queueType           = "REDQueue"
cmttest4.core[2].easternCoreRouter[*].ppp[0].queue.wq            = 0.002
cmttest4.core[2].easternCoreRouter[*].ppp[0].queue.minth         = 30
cmttest4.core[2].easternCoreRouter[*].ppp[0].queue.maxth         = 90
cmttest4.core[2].easternCoreRouter[*].ppp[0].queue.maxp          = 0.1
cmttest4.core[2].easternCoreRouter[*].ppp[0].queue.frameCapacity = 100
cmttest4.core[2].easternCoreRouter[*].ppp[0].queue.pkrate        = 1041.667
cmttest4.core[2].easternCoreRouter[*].pppg$o[0].channel.datarate = 12500000 bps
cmttest4.core[2].easternCoreRouter[*].pppg$o[0].channel.delay    = 10 ms
cmttest4.core[2].easternCoreRouter[*].pppg$o[0].channel.per      = 0
cmttest4.core[2].easternCoreRouter[*].pppg$o[0].channel.ber      = 0
cmttest4.core[2].client*[*].ppp[0].ppp.mtu = 1500   # Core
cmttest4.core[2].server*[*].ppp[0].ppp.mtu = 1500   # Core
cmttest4.core[2].client*[*].ppp[1].ppp.mtu = 1500   # Uplink; NOTE: mtu := max(commonMTU, uplinkMTU)
cmttest4.core[2].server*[*].ppp[1].ppp.mtu = 1500   # Uplink; NOTE: mtu := max(commonMTU, uplinkMTU)

# ===== Background Traffic ===============================
# ----- Western Nodes-------------------------------------
cmttest4.core[*].westernCoreRouter[*].numNetPerfMeters              = 1
cmttest4.core[*].westernCoreRouter[*].netPerfMeter[*].activeMode    = true
cmttest4.core[*].westernCoreRouter[*].netPerfMeter[*].protocol      = "UDP"
cmttest4.core[*].westernCoreRouter[*].netPerfMeter[*].frameRate     = 0
cmttest4.core[*].westernCoreRouter[*].netPerfMeter[*].frameSize     = 0
cmttest4.core[*].westernCoreRouter[*].netPerfMeter[*].maxMsgSize    = 1472 B
cmttest4.core[*].westernCoreRouter[*].netPerfMeter[*].unordered     = 0.0
cmttest4.core[*].westernCoreRouter[*].netPerfMeter[*].unreliable    = 0.0
cmttest4.core[*].westernCoreRouter[*].netPerfMeter[*].remoteAddress = "cmttest4.core[*].easternCoreRouter[" + string(${WesternCoreRouterID=ancestorIndex(1)}) + "]/ppp0"
cmttest4.core[*].westernCoreRouter[*].netPerfMeter[*].localPort     = 20000+${WesternCoreRouterClientID=ancestorIndex(0)}
cmttest4.core[*].westernCoreRouter[*].netPerfMeter[*].remotePort    = 8000+${WesternCoreRouterClientID}
# ----- Eastern Nodes-------------------------------------
cmttest4.core[*].easternCoreRouter[*].numNetPerfMeters              = 1
cmttest4.core[*].easternCoreRouter[*].netPerfMeter[*].activeMode    = false
cmttest4.core[*].easternCoreRouter[*].netPerfMeter[*].protocol      = "UDP"
cmttest4.core[*].easternCoreRouter[*].netPerfMeter[*].frameRate     = 0
cmttest4.core[*].easternCoreRouter[*].netPerfMeter[*].frameSize     = 0
cmttest4.core[*].easternCoreRouter[*].netPerfMeter[*].maxMsgSize    = 1472 B
cmttest4.core[*].easternCoreRouter[*].netPerfMeter[*].unordered     = 0.0
cmttest4.core[*].easternCoreRouter[*].netPerfMeter[*].unreliable    = 0.0
cmttest4.core[*].easternCoreRouter[*].netPerfMeter[*].localPort     = 8000+${EasternCoreRouterServerID=ancestorIndex(0)}

# ----- Common Settings --------------------------------
cmttest4.core[*].*[*].ppp[*].ppp.mtu = 1500

# ===== Application Parameters ===========================
# ----- NetPerfMeter Active Node--------------------------
cmttest4.core[*].client*[*].netPerfMeter[*].activeMode      = true
cmttest4.core[*].client*[*].netPerfMeter[*].connectTime     = 0.001 s
cmttest4.core[*].client*[*].netPerfMeter[*].startTime       = uniform(0.9s,1.1s)
cmttest4.core[*].client*[*].netPerfMeter[*].resetTime       = 19 s
cmttest4.core[*].client*[*].netPerfMeter[*].stopTime        = 60 s
cmttest4.core[*].client*[*].netPerfMeter[*].queueSize       = 2500000 B
cmttest4.core[*].client*[*].netPerfMeter[*].unordered       = 1
cmttest4.core[*].client*[*].netPerfMeter[*].unreliable      = 0
cmttest4.core[*].client*[*].netPerfMeter[*].outboundStreams = 1
cmttest4.core[*].client*[*].netPerfMeter[*].decoupleSaturatedStreams = false
cmttest4.core[*].client*[*].netPerfMeter[*].maxMsgSize      = 1452 B
cmttest4.core[*].client*[*].netPerfMeter[*].frameRate       = 0 Hz
cmttest4.core[*].client*[*].netPerfMeter[*].frameSize       = 1452 B
cmttest4.core[*].client*[*].netPerfMeter[*].frameRateString = ""
cmttest4.core[*].client*[*].netPerfMeter[*].frameSizeString = ""
cmttest4.core[*].client*[*].netPerfMeter[*].onTime          = -1s
cmttest4.core[*].client*[*].netPerfMeter[*].offTime         = -1s
cmttest4.core[*].client*[*].netPerfMeter[*].maxReconnects   = 0
# cmttest4.core[*].client*[*].tcpdump.dumpFile                = ${N1=fullPath()}+".pcap"   # *** Enable pcap dump here! ***

# ----- NetPerfMeter Passive Node ------------------------
cmttest4.core[*].server*[*].netPerfMeter[*].activeMode        = false
cmttest4.core[*].server*[*].netPerfMeter[*].connectTime       = 0.001 s
cmttest4.core[*].server*[*].netPerfMeter[*].startTime         = uniform(0.9s,1.1s)
cmttest4.core[*].server*[*].netPerfMeter[*].resetTime         = 19 s
cmttest4.core[*].server*[*].netPerfMeter[*].stopTime          = 60 s
cmttest4.core[*].server*[*].netPerfMeter[*].queueSize         = 2500000 B
cmttest4.core[*].server*[*].netPerfMeter[*].unordered         = 1
cmttest4.core[*].server*[*].netPerfMeter[*].unreliable        = 0
cmttest4.core[*].server*[*].netPerfMeter[*].maxInboundStreams = 16
cmttest4.core[*].server*[*].netPerfMeter[*].decoupleSaturatedStreams = false
cmttest4.core[*].server*[*].netPerfMeter[*].frameRate         = 0 Hz
cmttest4.core[*].server*[*].netPerfMeter[*].frameSize         = 0 B
cmttest4.core[*].server*[*].netPerfMeter[*].frameRateString   = ""
cmttest4.core[*].server*[*].netPerfMeter[*].frameSizeString   = ""
cmttest4.core[*].server*[*].netPerfMeter[*].maxMsgSize        = 1452 B
# cmttest4.core[*].server*[*].tcpdump.dumpFile                  = ${N2=fullPath()}+".pcap"   # *** Enable pcap dump here! ***

# ----- NetPerfMeter Connections -------------------------
cmttest4.core[0].clientReference[*].numNetPerfMeters     = 1
cmttest4.core[0].serverReference[*].numNetPerfMeters     = 1
cmttest4.core[0].clientMain[*].numNetPerfMeters          = 1
cmttest4.core[0].serverMain[*].numNetPerfMeters          = 1
cmttest4.core[1].clientReference[*].numNetPerfMeters     = 1
cmttest4.core[1].serverReference[*].numNetPerfMeters     = 1
cmttest4.core[1].clientMain[*].numNetPerfMeters          = 1
cmttest4.core[1].serverMain[*].numNetPerfMeters          = 1
cmttest4.core[2].clientReference[*].numNetPerfMeters     = 1
cmttest4.core[2].serverReference[*].numNetPerfMeters     = 1
cmttest4.core[2].clientMain[*].numNetPerfMeters          = 1
cmttest4.core[2].serverMain[*].numNetPerfMeters          = 1
cmttest4.core[0].clientReference[*].netPerfMeter[*].localPort     = 20000+${alphaReferenceClientNetPerfMeterID=ancestorIndex(0)}
cmttest4.core[0].clientReference[*].netPerfMeter[*].remotePort    = 8000+${alphaReferenceClientNetPerfMeterID}
cmttest4.core[0].clientReference[*].netPerfMeter[*].remoteAddress = "cmttest4.core[0].serverReference[" + string(${alphaReferenceClientID=ancestorIndex(1)}) + "]/ppp0"
cmttest4.core[0].clientReference[*].netPerfMeter[*].primaryPath   = "cmttest4.core[0].serverReference[" + string(${alphaReferenceClientID}) + "]/ppp0"
cmttest4.core[0].serverReference[*].netPerfMeter[*].localPort     = 8000+${alphaReferenceServerNetPerfMeterID=ancestorIndex(0)}
cmttest4.core[0].clientReference[*].netPerfMeter[*].protocol      = "SCTP"
cmttest4.core[0].serverReference[*].netPerfMeter[*].protocol      = "SCTP"
cmttest4.core[0].clientMain[*].netPerfMeter[*].localPort     = 20000+${alphaMainClientNetPerfMeterID=ancestorIndex(0)}
cmttest4.core[0].clientMain[*].netPerfMeter[*].remotePort    = 8000+${alphaMainClientNetPerfMeterID}
cmttest4.core[0].clientMain[*].netPerfMeter[*].remoteAddress = "cmttest4.core[0].serverMain[" + string(${alphaMainClientID=ancestorIndex(1)}) + "]/ppp0"
cmttest4.core[0].clientMain[*].netPerfMeter[*].primaryPath   = "cmttest4.core[0].serverMain[" + string(${alphaMainClientID}) + "]/ppp0"
cmttest4.core[0].serverMain[*].netPerfMeter[*].localPort     = 8000+${alphaMainServerNetPerfMeterID=ancestorIndex(0)}
cmttest4.core[0].clientMain[*].netPerfMeter[*].protocol      = "SCTP"
cmttest4.core[0].serverMain[*].netPerfMeter[*].protocol      = "SCTP"
cmttest4.core[1].clientReference[*].netPerfMeter[*].localPort     = 20000+${betaReferenceClientNetPerfMeterID=ancestorIndex(0)}
cmttest4.core[1].clientReference[*].netPerfMeter[*].remotePort    = 8000+${betaReferenceClientNetPerfMeterID}
cmttest4.core[1].clientReference[*].netPerfMeter[*].remoteAddress = "cmttest4.core[1].serverReference[" + string(${betaReferenceClientID=ancestorIndex(1)}) + "]/ppp0"
cmttest4.core[1].clientReference[*].netPerfMeter[*].primaryPath   = "cmttest4.core[1].serverReference[" + string(${betaReferenceClientID}) + "]/ppp0"
cmttest4.core[1].serverReference[*].netPerfMeter[*].localPort     = 8000+${betaReferenceServerNetPerfMeterID=ancestorIndex(0)}
cmttest4.core[1].clientReference[*].netPerfMeter[*].protocol      = "SCTP"
cmttest4.core[1].serverReference[*].netPerfMeter[*].protocol      = "SCTP"
cmttest4.core[1].clientMain[*].netPerfMeter[*].localPort     = 20000+${betaMainClientNetPerfMeterID=ancestorIndex(0)}
cmttest4.core[1].clientMain[*].netPerfMeter[*].remotePort    = 8000+${betaMainClientNetPerfMeterID}
cmttest4.core[1].clientMain[*].netPerfMeter[*].remoteAddress = "cmttest4.core[1].serverMain[" + string(${betaMainClientID=ancestorIndex(1)}) + "]/ppp0"
cmttest4.core[1].clientMain[*].netPerfMeter[*].primaryPath   = "cmttest4.core[1].serverMain[" + string(${betaMainClientID}) + "]/ppp0"
cmttest4.core[1].serverMain[*].netPerfMeter[*].localPort     = 8000+${betaMainServerNetPerfMeterID=ancestorIndex(0)}
cmttest4.core[1].clientMain[*].netPerfMeter[*].protocol      = "SCTP"
cmttest4.core[1].serverMain[*].netPerfMeter[*].protocol      = "SCTP"
cmttest4.core[2].clientReference[*].netPerfMeter[*].localPort     = 20000+${gammaReferenceClientNetPerfMeterID=ancestorIndex(0)}
cmttest4.core[2].clientReference[*].netPerfMeter[*].remotePort    = 8000+${gammaReferenceClientNetPerfMeterID}
cmttest4.core[2].clientReference[*].netPerfMeter[*].remoteAddress = "cmttest4.core[2].serverReference[" + string(${gammaReferenceClientID=ancestorIndex(1)}) + "]/ppp0"
cmttest4.core[2].clientReference[*].netPerfMeter[*].primaryPath   = "cmttest4.core[2].serverReference[" + string(${gammaReferenceClientID}) + "]/ppp0"
cmttest4.core[2].serverReference[*].netPerfMeter[*].localPort     = 8000+${gammaReferenceServerNetPerfMeterID=ancestorIndex(0)}
cmttest4.core[2].clientReference[*].netPerfMeter[*].protocol      = "SCTP"
cmttest4.core[2].serverReference[*].netPerfMeter[*].protocol      = "SCTP"
cmttest4.core[2].clientMain[*].netPerfMeter[*].localPort     = 20000+${gammaMainClientNetPerfMeterID=ancestorIndex(0)}
cmttest4.core[2].clientMain[*].netPerfMeter[*].remotePort    = 8000+${gammaMainClientNetPerfMeterID}
cmttest4.core[2].clientMain[*].netPerfMeter[*].remoteAddress = "cmttest4.core[2].serverMain[" + string(${gammaMainClientID=ancestorIndex(1)}) + "]/ppp0"
cmttest4.core[2].clientMain[*].netPerfMeter[*].primaryPath   = "cmttest4.core[2].serverMain[" + string(${gammaMainClientID}) + "]/ppp0"
cmttest4.core[2].serverMain[*].netPerfMeter[*].localPort     = 8000+${gammaMainServerNetPerfMeterID=ancestorIndex(0)}
cmttest4.core[2].clientMain[*].netPerfMeter[*].protocol      = "SCTP"
cmttest4.core[2].serverMain[*].netPerfMeter[*].protocol      = "SCTP"

# ===== SCTP Parameters ==================================
cmttest4.core[*].*[*].sctp.arwnd                       = 2500000
cmttest4.core[*].*[*].sctp.hbInterval                  = 30 s
cmttest4.core[*].*[*].sctp.enableHeartbeats            = true
cmttest4.core[*].*[*].sctp.sendHeartbeatsOnActivePaths = false
cmttest4.core[*].*[*].sctp.cmtSendAllVariant           = "smallestLastTransmission"
cmttest4.core[*].*[*].sctp.cmtRetransmissionVariant    = "normal"
cmttest4.core[*].*[*].sctp.cmtBufferSplitVariant       = "bothSides"
cmttest4.core[*].*[*].sctp.cmtBufferSplittingUsesOSB   = true
cmttest4.core[*].*[*].sctp.cmtCUCVariant               = "pseudoCumAckV2"
cmttest4.core[*].*[*].sctp.cmtUseSFR                   = true
cmttest4.core[*].*[*].sctp.cmtUseDAC                   = true
cmttest4.core[*].*[*].sctp.cmtUseFRC                   = true
cmttest4.core[*].*[*].sctp.cmtCCVariant                = "cmt"
cmttest4.core[*].*[*].sctp.cmtCCPathGroups             = ""
cmttest4.core[*].*[*].sctp.rpPathBlocking              = true
cmttest4.core[*].*[*].sctp.rpScaleBlockingTimeout      = false
cmttest4.core[*].*[*].sctp.rpMinCwnd                   = 1
cmttest4.core[*].*[*].sctp.cmtSackPath                 = "smallestSRTT"
cmttest4.core[*].*[*].sctp.nrSack                      = true
cmttest4.core[*].*[*].sctp.disableReneging             = false
cmttest4.core[*].*[*].sctp.gapReportLimit              = 1e+08
cmttest4.core[*].*[*].sctp.gapListOptimizationVariant  = "none"
cmttest4.core[*].*[*].sctp.smartOverfullSACKHandling   = true
cmttest4.core[*].*[*].sctp.cmtUseOOPG                  = false
cmttest4.core[*].*[*].sctp.strictCwndBooking           = false
cmttest4.core[*].*[*].sctp.osbWithHeader               = false
cmttest4.core[*].*[*].sctp.sackNow                     = true
cmttest4.core[*].*[*].sctp.packetDrop                  = false
cmttest4.core[*].*[*].sctp.highSpeedCC                 = false
cmttest4.core[*].*[*].sctp.maxBurst                    = 4
cmttest4.core[*].*[*].sctp.maxBurstVariant             = "maxBurst"
cmttest4.core[*].*[*].sctp.initialWindow               = 0
cmttest4.core[*].*[*].sctp.cmtSmartT3Reset             = true
cmttest4.core[*].*[*].sctp.cmtSmartReneging            = false
cmttest4.core[*].*[*].sctp.cmtSmartFastRTX             = true
cmttest4.core[*].*[*].sctp.cmtSlowPathRTTUpdate        = false
cmttest4.core[*].*[*].sctp.cmtChunkReschedulingVariant   = "none"
cmttest4.core[*].*[*].sctp.cmtChunkReschedulingThreshold = 0.5
cmttest4.core[*].*[*].sctp.cmtMovedChunksReduceCwnd    = true
cmttest4.core[*].*[*].sctp.movedChunkFastRTXFactor     = 2
cmttest4.core[*].*[*].sctp.streamsToPaths              = ""
cmttest4.core[*].*[*].sctp.RTXMethod                   = 0   # "once"
cmttest4.core[*].*[*].sctp.ssModule                    = 0   # "roundRobin"
cmttest4.core[*].*[*].sctp.allowQoSTracking            = false
cmttest4.core[*].*[*].sctp.qosTrackingInterval         = 1 s

# ===== TCP Parameters ===================================
cmttest4.core[*].*[*].tcp.advertisedWindow       = 2500000
cmttest4.core[*].*[*].tcp.mss                    = 1452
cmttest4.core[*].*[*].tcp.tcpAlgorithmClass      = "TCPReno"
cmttest4.core[*].*[*].tcp.sendQueueClass         = "TCPMsgBasedSendQueue"
cmttest4.core[*].*[*].tcp.receiveQueueClass      = "TCPMsgBasedRcvQueue"
cmttest4.core[*].*[*].tcp.sackSupport            = false
cmttest4.core[*].*[*].tcp.timestampSupport       = false
cmttest4.core[*].*[*].tcp.windowScalingSupport   = true
cmttest4.core[*].*[*].tcp.delayedAcksEnabled     = false
cmttest4.core[*].*[*].tcp.limitedTransmitEnabled = false
cmttest4.core[*].*[*].tcp.increasedIWEnabled     = false

# ===== IP Parameters ====================================
cmttest4.core[*].*[*].ip.procDelay         = 10us
cmttest4.core[*].*[*].routing.procDelay    = 0.2us
cmttest4.core[*].*[*].inputQueue.procDelay = 0.1us

# ===== Test Parameters ==================================
cmttest4.core[*].*[*].sctp.testValue0   = 0
cmttest4.core[*].*[*].sctp.testValue1   = 0
cmttest4.core[*].*[*].sctp.testValue2   = 0
cmttest4.core[*].*[*].sctp.testValue3   = 0
cmttest4.core[*].*[*].sctp.testValue4   = 0
cmttest4.core[*].*[*].sctp.testString0  = ""
cmttest4.core[*].*[*].sctp.testString1  = ""
cmttest4.core[*].*[*].sctp.testString2  = ""
cmttest4.core[*].*[*].sctp.testString3  = ""
cmttest4.core[*].*[*].sctp.testString4  = ""

