# ###### Created on Thu Jul 25 15:29:55 2013 ######
# Script version: $Id: simulate-version5.R 1053 2013-05-08 16:16:14Z dreibh $

[General]
network             = cmttest4
rng-class           = cMersenneTwister
seed-0-mt           = 1
output-scalar-file  = run1-scalars.sca
output-vector-file  = run1-vectors.vec
sim-time-limit      = 0s 18000s 1ms
simtime-scale       = -8   # 10ns time scale


cmdenv-express-mode = true     # *** Enable debugging messages here! ***
**.testing          = false   # *** Enable debugging messages here! ***
**.checkQueues      = false   # *** Enable checkOutstandingBytes() calls here! ***

cmttest4.**.vector-recording = false
cmttest4.**.vector-recording-intervals = 0s..0s 18000s

# ====== Special Settings ==============================

# ===== General Scenario Settings ======================
cmttest4.cores                  = 3
cmttest4.core[0].downlinkTrails = 2
cmttest4.core[1].uplinkTrails   = 2
cmttest4.core[1].downlinkTrails = 1
cmttest4.core[2].uplinkTrails   = 1
# ---- Alpha ----------------------------------------------
cmttest4.core[0].systemsMain                          = 1
cmttest4.core[0].systemsReference                     = 0
cmttest4.core[0].clientReference[*].*.cmtCCVariant = "off"
cmttest4.core[0].serverReference[*].*.cmtCCVariant = "off"
cmttest4.core[0].disjointTrails                       = 2
cmttest4.core[0].bottleneckTrails                     = 0
# ---- Beta -----------------------------------------------
cmttest4.core[1].systemsMain                          = 0
cmttest4.core[1].systemsReference                     = 0
cmttest4.core[1].clientReference[*].*.cmtCCVariant = "off"
cmttest4.core[1].serverReference[*].*.cmtCCVariant = "off"
cmttest4.core[1].disjointTrails                       = 1
cmttest4.core[1].bottleneckTrails                     = 0
# ---- Gamma ----------------------------------------------
cmttest4.core[2].systemsMain                          = 0
cmttest4.core[2].systemsReference                     = 0
cmttest4.core[2].clientReference[*].*.cmtCCVariant = "off"
cmttest4.core[2].serverReference[*].*.cmtCCVariant = "off"
cmttest4.core[2].disjointTrails                       = 1
cmttest4.core[2].bottleneckTrails                     = 0

# ===== Network QoS Settings ===========================
# ----- Alpha Trail ------------------------------------
cmttest4.core[0].westernCoreRouter[*].ppp[0].ppp.mtu             = 1500 B   # NOTE: mtu := max(commonMTU, coreMTU)
cmttest4.core[0].westernCoreRouter[*].ppp[0].queueType           = "REDQueue"
cmttest4.core[0].westernCoreRouter[*].ppp[0].queue.red.wq        = 0.002
cmttest4.core[0].westernCoreRouter[*].ppp[0].queue.red.minths    = "30"
cmttest4.core[0].westernCoreRouter[*].ppp[0].queue.red.maxths    = "90"
cmttest4.core[0].westernCoreRouter[*].ppp[0].queue.red.maxps     = "0.1"
cmttest4.core[0].westernCoreRouter[*].ppp[0].queue.red.pkrates   = "2083.333"
cmttest4.core[0].westernCoreRouter[*].ppp[0].queue.frameCapacity = 100
cmttest4.core[0].westernCoreRouter[*].pppg$o[0].channel.datarate = 2.5e+07 bps
cmttest4.core[0].westernCoreRouter[*].pppg$o[0].channel.delay    = 1 ms
cmttest4.core[0].westernCoreRouter[*].pppg$o[0].channel.per      = 0.001
cmttest4.core[0].westernCoreRouter[*].pppg$o[0].channel.ber      = 0
cmttest4.core[0].easternCoreRouter[*].ppp[0].ppp.mtu             = 1500 B   # NOTE: mtu := max(commonMTU, coreMTU)
cmttest4.core[0].easternCoreRouter[*].ppp[0].queueType           = "REDQueue"
cmttest4.core[0].easternCoreRouter[*].ppp[0].queue.red.wq        = 0.002
cmttest4.core[0].easternCoreRouter[*].ppp[0].queue.red.minths    = "30"
cmttest4.core[0].easternCoreRouter[*].ppp[0].queue.red.maxths    = "90"
cmttest4.core[0].easternCoreRouter[*].ppp[0].queue.red.maxps     = "0.1"
cmttest4.core[0].easternCoreRouter[*].ppp[0].queue.red.pkrates   = "2083.333"
cmttest4.core[0].easternCoreRouter[*].ppp[0].queue.frameCapacity = 100
cmttest4.core[0].easternCoreRouter[*].pppg$o[0].channel.datarate = 2.5e+07 bps
cmttest4.core[0].easternCoreRouter[*].pppg$o[0].channel.delay    = 1 ms
cmttest4.core[0].easternCoreRouter[*].pppg$o[0].channel.per      = 0
cmttest4.core[0].easternCoreRouter[*].pppg$o[0].channel.ber      = 0
cmttest4.core[0].client*[*].ppp[0].ppp.mtu = 1500 B   # Core
cmttest4.core[0].server*[*].ppp[0].ppp.mtu = 1500 B   # Core
cmttest4.core[0].client*[*].ppp[1].ppp.mtu = 1500 B   # Core
cmttest4.core[0].server*[*].ppp[1].ppp.mtu = 1500 B   # Core

# ----- Beta Trail -------------------------------------
cmttest4.core[1].westernCoreRouter[*].ppp[0].ppp.mtu             = 1500 B   # NOTE: mtu := max(commonMTU, coreMTU)
cmttest4.core[1].westernCoreRouter[*].ppp[0].queueType           = "REDQueue"
cmttest4.core[1].westernCoreRouter[*].ppp[0].queue.red.wq        = 0.002
cmttest4.core[1].westernCoreRouter[*].ppp[0].queue.red.minths    = "30"
cmttest4.core[1].westernCoreRouter[*].ppp[0].queue.red.maxths    = "90"
cmttest4.core[1].westernCoreRouter[*].ppp[0].queue.red.maxps     = "0.1"
cmttest4.core[1].westernCoreRouter[*].ppp[0].queue.red.pkrates   = "2083.333"
cmttest4.core[1].westernCoreRouter[*].ppp[0].queue.frameCapacity = 100
cmttest4.core[1].westernCoreRouter[*].pppg$o[0].channel.datarate = 2.5e+07 bps
cmttest4.core[1].westernCoreRouter[*].pppg$o[0].channel.delay    = 1 ms
cmttest4.core[1].westernCoreRouter[*].pppg$o[0].channel.per      = 0.001
cmttest4.core[1].westernCoreRouter[*].pppg$o[0].channel.ber      = 0
cmttest4.core[1].easternCoreRouter[*].ppp[0].ppp.mtu             = 1500 B   # NOTE: mtu := max(commonMTU, coreMTU)
cmttest4.core[1].easternCoreRouter[*].ppp[0].queueType           = "REDQueue"
cmttest4.core[1].easternCoreRouter[*].ppp[0].queue.red.wq        = 0.002
cmttest4.core[1].easternCoreRouter[*].ppp[0].queue.red.minths    = "30"
cmttest4.core[1].easternCoreRouter[*].ppp[0].queue.red.maxths    = "90"
cmttest4.core[1].easternCoreRouter[*].ppp[0].queue.red.maxps     = "0.1"
cmttest4.core[1].easternCoreRouter[*].ppp[0].queue.red.pkrates   = "2083.333"
cmttest4.core[1].easternCoreRouter[*].ppp[0].queue.frameCapacity = 100
cmttest4.core[1].easternCoreRouter[*].pppg$o[0].channel.datarate = 2.5e+07 bps
cmttest4.core[1].easternCoreRouter[*].pppg$o[0].channel.delay    = 1 ms
cmttest4.core[1].easternCoreRouter[*].pppg$o[0].channel.per      = 0
cmttest4.core[1].easternCoreRouter[*].pppg$o[0].channel.ber      = 0
cmttest4.core[1].client*[*].ppp[0].ppp.mtu = 1500 B   # Core
cmttest4.core[1].server*[*].ppp[0].ppp.mtu = 1500 B   # Core
cmttest4.core[1].client*[*].ppp[1].ppp.mtu = 1500 B   # Uplink; NOTE: mtu := max(commonMTU, uplinkMTU)
cmttest4.core[1].server*[*].ppp[1].ppp.mtu = 1500 B   # Uplink; NOTE: mtu := max(commonMTU, uplinkMTU)
cmttest4.core[1].client*[*].ppp[2].ppp.mtu = 1500 B   # Uplink; NOTE: mtu := max(commonMTU, uplinkMTU)
cmttest4.core[1].server*[*].ppp[2].ppp.mtu = 1500 B   # Uplink; NOTE: mtu := max(commonMTU, uplinkMTU)

# ----- Gamma Trail ------------------------------------
cmttest4.core[2].westernCoreRouter[*].ppp[0].ppp.mtu             = 1500 B   # NOTE: mtu := max(commonMTU, coreMTU)
cmttest4.core[2].westernCoreRouter[*].ppp[0].queueType           = "REDQueue"
cmttest4.core[2].westernCoreRouter[*].ppp[0].queue.red.wq        = 0.002
cmttest4.core[2].westernCoreRouter[*].ppp[0].queue.red.minths    = "30"
cmttest4.core[2].westernCoreRouter[*].ppp[0].queue.red.maxths    = "90"
cmttest4.core[2].westernCoreRouter[*].ppp[0].queue.red.maxps     = "0.1"
cmttest4.core[2].westernCoreRouter[*].ppp[0].queue.red.pkrates   = "2083.333"
cmttest4.core[2].westernCoreRouter[*].ppp[0].queue.frameCapacity = 100
cmttest4.core[2].westernCoreRouter[*].pppg$o[0].channel.datarate = 2.5e+07 bps
cmttest4.core[2].westernCoreRouter[*].pppg$o[0].channel.delay    = 1 ms
cmttest4.core[2].westernCoreRouter[*].pppg$o[0].channel.per      = 0.001
cmttest4.core[2].westernCoreRouter[*].pppg$o[0].channel.ber      = 0
cmttest4.core[2].easternCoreRouter[*].ppp[0].ppp.mtu             = 1500 B   # NOTE: mtu := max(commonMTU, coreMTU)
cmttest4.core[2].easternCoreRouter[*].ppp[0].queueType           = "REDQueue"
cmttest4.core[2].easternCoreRouter[*].ppp[0].queue.red.wq        = 0.002
cmttest4.core[2].easternCoreRouter[*].ppp[0].queue.red.minths    = "30"
cmttest4.core[2].easternCoreRouter[*].ppp[0].queue.red.maxths    = "90"
cmttest4.core[2].easternCoreRouter[*].ppp[0].queue.red.maxps     = "0.1"
cmttest4.core[2].easternCoreRouter[*].ppp[0].queue.red.pkrates   = "2083.333"
cmttest4.core[2].easternCoreRouter[*].ppp[0].queue.frameCapacity = 100
cmttest4.core[2].easternCoreRouter[*].pppg$o[0].channel.datarate = 2.5e+07 bps
cmttest4.core[2].easternCoreRouter[*].pppg$o[0].channel.delay    = 1 ms
cmttest4.core[2].easternCoreRouter[*].pppg$o[0].channel.per      = 0
cmttest4.core[2].easternCoreRouter[*].pppg$o[0].channel.ber      = 0
cmttest4.core[2].client*[*].ppp[0].ppp.mtu = 1500 B   # Core
cmttest4.core[2].server*[*].ppp[0].ppp.mtu = 1500 B   # Core
cmttest4.core[2].client*[*].ppp[1].ppp.mtu = 1500 B   # Uplink; NOTE: mtu := max(commonMTU, uplinkMTU)
cmttest4.core[2].server*[*].ppp[1].ppp.mtu = 1500 B   # Uplink; NOTE: mtu := max(commonMTU, uplinkMTU)

# ===== Background Traffic ===============================

# ----- Common Settings --------------------------------
cmttest4.core[*].*[*].ppp[*].ppp.mtu = 1500 B

# ===== Application Parameters ===========================
# ----- NetPerfMeter Active Node--------------------------
cmttest4.core[*].client*[*].netPerfMeterApp[*].activeMode      = true
cmttest4.core[*].client*[*].netPerfMeterApp[*].connectTime     = 0.001 s
cmttest4.core[*].client*[*].netPerfMeterApp[*].startTime       = uniform(50.9s,55.1s)
cmttest4.core[*].client*[*].netPerfMeterApp[*].resetTime       = 80 s
cmttest4.core[*].client*[*].netPerfMeterApp[*].stopTime        = 300 s
cmttest4.core[*].client*[*].netPerfMeterApp[*].queueSize       = 5e+08 B
cmttest4.core[*].client*[*].netPerfMeterApp[*].unordered       = 0
cmttest4.core[*].client*[*].netPerfMeterApp[*].unreliable      = 0
cmttest4.core[*].client*[*].netPerfMeterApp[*].outboundStreams = 1
cmttest4.core[*].client*[*].netPerfMeterApp[*].decoupleSaturatedStreams = false
cmttest4.core[*].client*[*].netPerfMeterApp[*].maxMsgSize      = 1424 B
cmttest4.core[*].client*[*].netPerfMeterApp[*].frameRate         = 0 Hz
cmttest4.core[*].client*[*].netPerfMeterApp[*].frameSize         = 1424 B
cmttest4.core[*].client*[*].netPerfMeterApp[*].frameRateString   = ""
cmttest4.core[*].client*[*].netPerfMeterApp[*].frameSizeString   = ""
cmttest4.core[*].client*[*].netPerfMeterApp[*].onTime            = -1s
cmttest4.core[*].client*[*].netPerfMeterApp[*].offTime           = -1s
cmttest4.core[*].client*[*].netPerfMeterApp[*].maxReconnects     = 0
cmttest4.core[*].client*[*].numPcapRecorders                     = 0   # *** Enable pcap dump here! ***
cmttest4.core[*].client*[*].pcapRecorder[0].pcapFile             = ${N1=fullPath()}+".pcap"   # *** Enable pcap dump here! ***

# ----- NetPerfMeter Passive Node ------------------------
cmttest4.core[*].server*[*].netPerfMeterApp[*].activeMode        = false
cmttest4.core[*].server*[*].netPerfMeterApp[*].connectTime       = 0.001 s
cmttest4.core[*].server*[*].netPerfMeterApp[*].startTime         = uniform(50.9s,55.1s)
cmttest4.core[*].server*[*].netPerfMeterApp[*].resetTime         = 80 s
cmttest4.core[*].server*[*].netPerfMeterApp[*].stopTime          = 300 s
cmttest4.core[*].server*[*].netPerfMeterApp[*].queueSize         = 5e+08 B
cmttest4.core[*].server*[*].netPerfMeterApp[*].unordered         = 0
cmttest4.core[*].server*[*].netPerfMeterApp[*].unreliable        = 0
cmttest4.core[*].server*[*].netPerfMeterApp[*].maxInboundStreams = 16
cmttest4.core[*].server*[*].netPerfMeterApp[*].decoupleSaturatedStreams = false
cmttest4.core[*].server*[*].netPerfMeterApp[*].frameRate         = 0 Hz
cmttest4.core[*].server*[*].netPerfMeterApp[*].frameSize         = 0 B
cmttest4.core[*].server*[*].netPerfMeterApp[*].frameRateString   = ""
cmttest4.core[*].server*[*].netPerfMeterApp[*].frameSizeString   = ""
cmttest4.core[*].server*[*].netPerfMeterApp[*].maxMsgSize        = 1424 B
cmttest4.core[*].server*[*].numPcapRecorders                     = 0   # *** Enable pcap dump here! ***
cmttest4.core[*].server*[*].pcapRecorder[0].pcapFile             = ${N2=fullPath()}+".pcap"

# ----- NetPerfMeter Connections -------------------------
cmttest4.core[0].clientReference[*].numNetPerfMeterApps  = 1
cmttest4.core[0].serverReference[*].numNetPerfMeterApps  = 1
cmttest4.core[0].clientMain[*].numNetPerfMeterApps       = 1
cmttest4.core[0].serverMain[*].numNetPerfMeterApps       = 1
cmttest4.core[1].clientReference[*].numNetPerfMeterApps  = 1
cmttest4.core[1].serverReference[*].numNetPerfMeterApps  = 1
cmttest4.core[1].clientMain[*].numNetPerfMeterApps       = 1
cmttest4.core[1].serverMain[*].numNetPerfMeterApps       = 1
cmttest4.core[2].clientReference[*].numNetPerfMeterApps  = 1
cmttest4.core[2].serverReference[*].numNetPerfMeterApps  = 1
cmttest4.core[2].clientMain[*].numNetPerfMeterApps       = 1
cmttest4.core[2].serverMain[*].numNetPerfMeterApps       = 1
cmttest4.core[0].clientReference[*].netPerfMeterApp[*].localPort     = 20000+${alphaReferenceClientNetPerfMeterID=ancestorIndex(0)}
cmttest4.core[0].clientReference[*].netPerfMeterApp[*].remotePort    = 8000+${alphaReferenceClientNetPerfMeterID}
cmttest4.core[0].clientReference[*].netPerfMeterApp[*].remoteAddress = "cmttest4.core[0].serverReference[" + string(${alphaReferenceClientID=ancestorIndex(1)}) + "]%ppp0"
cmttest4.core[0].clientReference[*].netPerfMeterApp[*].primaryPath   = "cmttest4.core[0].serverReference[" + string(${alphaReferenceClientID}) + "]%ppp0"
cmttest4.core[0].serverReference[*].netPerfMeterApp[*].localPort     = 8000+${alphaReferenceServerNetPerfMeterID=ancestorIndex(0)}
cmttest4.core[0].clientReference[*].netPerfMeterApp[*].protocol      = "SCTP"
cmttest4.core[0].serverReference[*].netPerfMeterApp[*].protocol      = "SCTP"
cmttest4.core[0].clientMain[*].netPerfMeterApp[*].localPort     = 20000+${alphaMainClientNetPerfMeterID=ancestorIndex(0)}
cmttest4.core[0].clientMain[*].netPerfMeterApp[*].remotePort    = 8000+${alphaMainClientNetPerfMeterID}
cmttest4.core[0].clientMain[*].netPerfMeterApp[*].remoteAddress = "cmttest4.core[0].serverMain[" + string(${alphaMainClientID=ancestorIndex(1)}) + "]%ppp0"
cmttest4.core[0].clientMain[*].netPerfMeterApp[*].primaryPath   = "cmttest4.core[0].serverMain[" + string(${alphaMainClientID}) + "]%ppp0"
cmttest4.core[0].serverMain[*].netPerfMeterApp[*].localPort     = 8000+${alphaMainServerNetPerfMeterID=ancestorIndex(0)}
cmttest4.core[0].clientMain[*].netPerfMeterApp[*].protocol      = "TCP"
cmttest4.core[0].serverMain[*].netPerfMeterApp[*].protocol      = "TCP"
cmttest4.core[1].clientReference[*].netPerfMeterApp[*].localPort     = 20000+${betaReferenceClientNetPerfMeterID=ancestorIndex(0)}
cmttest4.core[1].clientReference[*].netPerfMeterApp[*].remotePort    = 8000+${betaReferenceClientNetPerfMeterID}
cmttest4.core[1].clientReference[*].netPerfMeterApp[*].remoteAddress = "cmttest4.core[1].serverReference[" + string(${betaReferenceClientID=ancestorIndex(1)}) + "]%ppp0"
cmttest4.core[1].clientReference[*].netPerfMeterApp[*].primaryPath   = "cmttest4.core[1].serverReference[" + string(${betaReferenceClientID}) + "]%ppp0"
cmttest4.core[1].serverReference[*].netPerfMeterApp[*].localPort     = 8000+${betaReferenceServerNetPerfMeterID=ancestorIndex(0)}
cmttest4.core[1].clientReference[*].netPerfMeterApp[*].protocol      = "SCTP"
cmttest4.core[1].serverReference[*].netPerfMeterApp[*].protocol      = "SCTP"
cmttest4.core[1].clientMain[*].netPerfMeterApp[*].localPort     = 20000+${betaMainClientNetPerfMeterID=ancestorIndex(0)}
cmttest4.core[1].clientMain[*].netPerfMeterApp[*].remotePort    = 8000+${betaMainClientNetPerfMeterID}
cmttest4.core[1].clientMain[*].netPerfMeterApp[*].remoteAddress = "cmttest4.core[1].serverMain[" + string(${betaMainClientID=ancestorIndex(1)}) + "]%ppp0"
cmttest4.core[1].clientMain[*].netPerfMeterApp[*].primaryPath   = "cmttest4.core[1].serverMain[" + string(${betaMainClientID}) + "]%ppp0"
cmttest4.core[1].serverMain[*].netPerfMeterApp[*].localPort     = 8000+${betaMainServerNetPerfMeterID=ancestorIndex(0)}
cmttest4.core[1].clientMain[*].netPerfMeterApp[*].protocol      = "SCTP"
cmttest4.core[1].serverMain[*].netPerfMeterApp[*].protocol      = "SCTP"
cmttest4.core[2].clientReference[*].netPerfMeterApp[*].localPort     = 20000+${gammaReferenceClientNetPerfMeterID=ancestorIndex(0)}
cmttest4.core[2].clientReference[*].netPerfMeterApp[*].remotePort    = 8000+${gammaReferenceClientNetPerfMeterID}
cmttest4.core[2].clientReference[*].netPerfMeterApp[*].remoteAddress = "cmttest4.core[2].serverReference[" + string(${gammaReferenceClientID=ancestorIndex(1)}) + "]%ppp0"
cmttest4.core[2].clientReference[*].netPerfMeterApp[*].primaryPath   = "cmttest4.core[2].serverReference[" + string(${gammaReferenceClientID}) + "]%ppp0"
cmttest4.core[2].serverReference[*].netPerfMeterApp[*].localPort     = 8000+${gammaReferenceServerNetPerfMeterID=ancestorIndex(0)}
cmttest4.core[2].clientReference[*].netPerfMeterApp[*].protocol      = "SCTP"
cmttest4.core[2].serverReference[*].netPerfMeterApp[*].protocol      = "SCTP"
cmttest4.core[2].clientMain[*].netPerfMeterApp[*].localPort     = 20000+${gammaMainClientNetPerfMeterID=ancestorIndex(0)}
cmttest4.core[2].clientMain[*].netPerfMeterApp[*].remotePort    = 8000+${gammaMainClientNetPerfMeterID}
cmttest4.core[2].clientMain[*].netPerfMeterApp[*].remoteAddress = "cmttest4.core[2].serverMain[" + string(${gammaMainClientID=ancestorIndex(1)}) + "]%ppp0"
cmttest4.core[2].clientMain[*].netPerfMeterApp[*].primaryPath   = "cmttest4.core[2].serverMain[" + string(${gammaMainClientID}) + "]%ppp0"
cmttest4.core[2].serverMain[*].netPerfMeterApp[*].localPort     = 8000+${gammaMainServerNetPerfMeterID=ancestorIndex(0)}
cmttest4.core[2].clientMain[*].netPerfMeterApp[*].protocol      = "SCTP"
cmttest4.core[2].serverMain[*].netPerfMeterApp[*].protocol      = "SCTP"

# ===== SCTP Parameters ==================================
cmttest4.core[*].*[*].sctp.arwnd                       = 5e+08
cmttest4.core[*].*[*].sctp.hbInterval                  = 30 s
cmttest4.core[*].*[*].sctp.enableHeartbeats            = true
cmttest4.core[*].*[*].sctp.sendHeartbeatsOnActivePaths = false
cmttest4.core[*].*[*].sctp.cmtSendAllVariant           = "smallestLastTransmission"
cmttest4.core[*].*[*].sctp.cmtRetransmissionVariant    = "normal"
cmttest4.core[*].*[*].sctp.cmtBufferSplitVariant       = "none"
cmttest4.core[*].*[*].sctp.cmtBufferSplittingUsesOSB   = false
cmttest4.core[*].*[*].sctp.cmtCUCVariant               = "pseudoCumAckV2"
cmttest4.core[*].*[*].sctp.cmtUseSFR                   = false
cmttest4.core[*].*[*].sctp.cmtUseDAC                   = false
cmttest4.core[*].*[*].sctp.cmtUseFRC                   = false
cmttest4.core[*].*[*].sctp.cmtCCPathGroups             = ""
cmttest4.core[*].*[*].sctp.rpPathBlocking              = false
cmttest4.core[*].*[*].sctp.rpScaleBlockingTimeout      = false
cmttest4.core[*].*[*].sctp.rpMinCwnd                   = 1
cmttest4.core[*].*[*].sctp.cmtSackPath                 = "standard"
cmttest4.core[*].*[*].sctp.nrSack                      = false
cmttest4.core[*].*[*].sctp.disableReneging             = false
cmttest4.core[*].*[*].sctp.gapReportLimit              = 1e+08
cmttest4.core[*].*[*].sctp.gapListOptimizationVariant  = "none"
cmttest4.core[*].*[*].sctp.smartOverfullSACKHandling   = true
cmttest4.core[*].*[*].sctp.cmtUseOOPG                  = false
cmttest4.core[*].*[*].sctp.strictCwndBooking           = false
cmttest4.core[*].*[*].sctp.osbWithHeader               = false
cmttest4.core[*].*[*].sctp.sackNow                     = false
cmttest4.core[*].*[*].sctp.packetDrop                  = false
cmttest4.core[*].*[*].sctp.highSpeedCC                 = false
cmttest4.core[*].*[*].sctp.maxBurst                    = 4
cmttest4.core[*].*[*].sctp.maxBurstVariant             = "useItOrLoseIt"
cmttest4.core[*].*[*].sctp.initialWindow               = 0
cmttest4.core[*].*[*].sctp.cmtSmartT3Reset             = false
cmttest4.core[*].*[*].sctp.cmtSmartReneging            = false
cmttest4.core[*].*[*].sctp.cmtSmartFastRTX             = false
cmttest4.core[*].*[*].sctp.cmtSlowPathRTTUpdate        = false
cmttest4.core[*].*[*].sctp.cmtChunkReschedulingVariant   = "none"
cmttest4.core[*].*[*].sctp.cmtChunkReschedulingThreshold = 0.5
cmttest4.core[*].*[*].sctp.cmtMovedChunksReduceCwnd    = true
cmttest4.core[*].*[*].sctp.movedChunkFastRTXFactor     = 2
cmttest4.core[*].*[*].sctp.streamsToPaths              = ""
# ===== SCTP-ledbat spParameters ==================================
cmttest4.core[*].client*[*].*.ledbat_target_numerator       = 150
cmttest4.core[*].server*[*].*.ledbat_target_numerator       = 150
cmttest4.core[*].client*[*].*.ledbat_target_denominator     = 1000
cmttest4.core[*].server*[*].*.ledbat_target_denominator     = 1000
cmttest4.core[*].client*[*].*.ledbat_GAIN_numerator       = 150
cmttest4.core[*].server*[*].*.ledbat_target_numerator       = 1000
cmttest4.core[*].client*[*].*.ledbat_GAIN_denominator     = 1000
cmttest4.core[*].server*[*].*.ledbat_GAIN_denominator     = 1000
# ===== Multipath CC Parameters ==================================
cmttest4.core[*].*Main*[*].*.cmtCCVariant          = "mptcp-like"
cmttest4.core[*].*Reference*[*].*.cmtCCVariant     = "off"
cmttest4.core[*].*[*].sctp.RTXMethod                   = 0   # "once"
cmttest4.core[*].*[*].sctp.ssModule                    = 0   # "roundRobin"
cmttest4.core[*].*[*].sctp.allowQoSTracking            = false
cmttest4.core[*].*[*].sctp.qosTrackingInterval         = 1 s

# ===== TCP Parameters ===================================
cmttest4.core[*].*[*].tcp.advertisedWindow       = 5e+08
cmttest4.core[*].*[*].tcp.mss                    = 1456
cmttest4.core[*].*[*].tcp.tcpAlgorithmClass      = "TCPNewReno"
cmttest4.core[*].*[*].tcp.sackSupport            = true
cmttest4.core[*].*[*].tcp.timestampSupport       = true
cmttest4.core[*].*[*].tcp.windowScalingSupport   = true
cmttest4.core[*].*[*].tcp.delayedAcksEnabled     = false
cmttest4.core[*].*[*].tcp.limitedTransmitEnabled = true
cmttest4.core[*].*[*].tcp.increasedIWEnabled     = false

# ===== IP Parameters ====================================
cmttest4.core[*].*[*].ip.procDelay         = 10us
cmttest4.core[*].*[*].routing.procDelay    = 0.2us
cmttest4.core[*].*[*].inputQueue.procDelay = 0.1us

# ===== Test Parameters ==================================
cmttest4.core[*].*[*].sctp.testValue0   = 0
cmttest4.core[*].*[*].sctp.testValue1   = 0
cmttest4.core[*].*[*].sctp.testValue2   = 0
cmttest4.core[*].*[*].sctp.testValue3   = 0
cmttest4.core[*].*[*].sctp.testValue4   = 0
cmttest4.core[*].*[*].sctp.testString0  = ""
cmttest4.core[*].*[*].sctp.testString1  = ""
cmttest4.core[*].*[*].sctp.testString2  = ""
cmttest4.core[*].*[*].sctp.testString3  = ""
cmttest4.core[*].*[*].sctp.testString4  = ""

